version 2
run General-0-20201128-15:26:34-29524
attr configname General
attr datetime 20201128-15:26:34
attr experiment General
attr inifile omnetpp.ini
attr iterationvars ""
attr iterationvarsf ""
attr measurement ""
attr network sim
attr processid 29524
attr repetition 0
attr replication #0
attr resultdir results
attr runnumber 0
attr seedset 0
param **.n[0].isRoot true
param **.n[1].parent 0
param **.n[2].parent 0
param **.n[3].parent 1
param **.n[4].parent 0
param **.n[5].parent 0
param **.n[6].parent 5
param **.n[7].parent 2
param **.n[8].parent 1
param **.n[9].parent 5

vector 0 sim.n[0].sink latencyAll:vector ETV
attr interpolationmode none
attr title "e2e latency of arrived jobs, vector"
attr unit ms
vector 1 sim.n[0].sink "latency of Node5:vector" ETV
attr interpolationmode none
attr title "e2e latency of arrived jobs, vector"
attr unit ms
vector 2 sim.n[0].sink "latency of Node4:vector" ETV
attr interpolationmode none
attr title "e2e latency of arrived jobs, vector"
attr unit ms
vector 3 sim.n[0].sink "latency of Node2:vector" ETV
attr interpolationmode none
attr title "e2e latency of arrived jobs, vector"
attr unit ms
vector 4 sim.n[0].sink "latency of Node1:vector" ETV
attr interpolationmode none
attr title "e2e latency of arrived jobs, vector"
attr unit ms
vector 5 sim.n[0].sink "latency of Node9:vector" ETV
attr interpolationmode none
attr title "e2e latency of arrived jobs, vector"
attr unit ms
vector 6 sim.n[0].sink "latency of Node7:vector" ETV
attr interpolationmode none
attr title "e2e latency of arrived jobs, vector"
attr unit ms
vector 7 sim.n[0].sink "latency of Node8:vector" ETV
attr interpolationmode none
attr title "e2e latency of arrived jobs, vector"
attr unit ms
vector 8 sim.n[0].sink "latency of Node6:vector" ETV
attr interpolationmode none
attr title "e2e latency of arrived jobs, vector"
attr unit ms
vector 9 sim.n[0].sink "latency of Node3:vector" ETV
attr interpolationmode none
attr title "e2e latency of arrived jobs, vector"
attr unit ms
0	128	0.104	0
0	150	0.124	0
0	194	0.164	0
0	216	0.184	0
0	458	0.424	400
0	520	0.484	420
0	542	0.504	460
0	784	0.744	660
0	866	0.824	680
0	1134	1.064	0
0	1156	1.084	0
0	1200	1.124	0
0	1222	1.144	0
0	1464	1.384	400
0	1526	1.444	420
0	1548	1.464	460
0	1790	1.704	660
0	1872	1.784	680
0	2140	2.024	0
0	2162	2.044	0
0	2206	2.084	0
0	2228	2.104	0
0	2470	2.344	400
0	2532	2.404	420
0	2554	2.424	460
0	2796	2.664	660
0	2878	2.744	680
0	3146	2.984	0
0	3168	3.004	0
0	3212	3.044	0
0	3234	3.064	0
0	3476	3.304	400
0	3538	3.364	420
0	3560	3.384	460
0	3802	3.624	660
0	3884	3.704	680
0	4152	3.944	0
0	4174	3.964	0
0	4218	4.004	0
0	4240	4.024	0
0	4482	4.264	400
0	4544	4.324	420
0	4566	4.344	460
0	4808	4.584	660
0	4890	4.664	680
0	5158	4.904	0
0	5180	4.924	0
0	5224	4.964	0
0	5246	4.984	0
0	5488	5.224	400
0	5550	5.284	420
0	5572	5.304	460
0	5814	5.544	660
0	5896	5.624	680
0	6164	5.864	0
0	6186	5.884	0
0	6230	5.924	0
0	6252	5.944	0
0	6494	6.184	400
0	6556	6.244	420
0	6578	6.264	460
0	6820	6.504	660
0	6902	6.584	680
0	7170	6.824	0
0	7192	6.844	0
0	7236	6.884	0
0	7258	6.904	0
0	7500	7.144	400
0	7562	7.204	420
0	7584	7.224	460
0	7826	7.464	660
0	7908	7.544	680
0	8176	7.784	0
0	8198	7.804	0
0	8242	7.844	0
0	8264	7.864	0
0	8506	8.104	400
0	8568	8.164	420
0	8590	8.184	460
0	8832	8.424	660
0	8914	8.504	680
0	9182	8.744	0
0	9204	8.764	0
0	9248	8.804	0
0	9270	8.824	0
0	9512	9.064	400
0	9574	9.124	420
0	9596	9.144	460
0	9838	9.384	660
0	9920	9.464	680
0	10188	9.704	0
0	10210	9.724	0
0	10254	9.764	0
0	10276	9.784	0
0	10518	10.024	400
0	10580	10.084	420
0	10602	10.104	460
0	10844	10.344	660
0	10926	10.424	680
0	11194	10.664	0
0	11216	10.684	0
0	11260	10.724	0
0	11282	10.744	0
0	11524	10.984	400
0	11586	11.044	420
0	11608	11.064	460
0	11850	11.304	660
0	11932	11.384	680
0	12200	11.624	0
0	12222	11.644	0
0	12266	11.684	0
0	12288	11.704	0
0	12530	11.944	400
0	12592	12.004	420
0	12614	12.024	460
0	12856	12.264	660
0	12938	12.344	680
0	13206	12.584	0
0	13228	12.604	0
0	13272	12.644	0
0	13294	12.664	0
0	13536	12.904	400
0	13598	12.964	420
0	13620	12.984	460
0	13862	13.224	660
0	13944	13.304	680
0	14212	13.544	0
0	14234	13.564	0
0	14278	13.604	0
0	14300	13.624	0
0	14542	13.864	400
0	14604	13.924	420
0	14626	13.944	460
0	14868	14.184	660
0	14950	14.264	680
0	15218	14.504	0
0	15240	14.524	0
0	15284	14.564	0
0	15306	14.584	0
0	15548	14.824	400
0	15610	14.884	420
0	15632	14.904	460
0	15874	15.144	660
0	15956	15.224	680
0	16224	15.464	0
0	16246	15.484	0
0	16290	15.524	0
0	16312	15.544	0
0	16554	15.784	400
0	16616	15.844	420
0	16638	15.864	460
0	16880	16.104	660
0	16962	16.184	680
0	17230	16.424	0
0	17252	16.444	0
0	17296	16.484	0
0	17318	16.504	0
0	17560	16.744	400
0	17622	16.804	420
0	17644	16.824	460
0	17886	17.064	660
0	17968	17.144	680
0	18236	17.384	0
0	18258	17.404	0
0	18302	17.444	0
0	18324	17.464	0
0	18566	17.704	400
0	18628	17.764	420
0	18650	17.784	460
0	18892	18.024	660
0	18974	18.104	680
0	19242	18.344	0
0	19264	18.364	0
0	19308	18.404	0
0	19330	18.424	0
0	19572	18.664	400
0	19634	18.724	420
0	19656	18.744	460
0	19898	18.984	660
0	19980	19.064	680
0	20248	19.304	0
0	20270	19.324	0
0	20314	19.364	0
0	20336	19.384	0
0	20578	19.624	400
0	20640	19.684	420
0	20662	19.704	460
0	20904	19.944	660
0	20986	20.024	680
0	21254	20.264	0
0	21276	20.284	0
0	21320	20.324	0
0	21342	20.344	0
0	21584	20.584	400
0	21646	20.644	420
0	21668	20.664	460
0	21910	20.904	660
0	21992	20.984	680
0	22260	21.224	0
0	22282	21.244	0
0	22326	21.284	0
0	22348	21.304	0
0	22590	21.544	400
0	22652	21.604	420
0	22674	21.624	460
0	22916	21.864	660
0	22998	21.944	680
0	23266	22.184	0
0	23288	22.204	0
0	23332	22.244	0
0	23354	22.264	0
0	23596	22.504	400
0	23658	22.564	420
0	23680	22.584	460
0	23922	22.824	660
0	24004	22.904	680
0	24272	23.144	0
0	24294	23.164	0
0	24338	23.204	0
0	24360	23.224	0
0	24602	23.464	400
0	24664	23.524	420
0	24686	23.544	460
0	24928	23.784	660
0	25010	23.864	680
0	25278	24.104	0
0	25300	24.124	0
0	25344	24.164	0
0	25366	24.184	0
0	25608	24.424	400
0	25670	24.484	420
0	25692	24.504	460
0	25934	24.744	660
0	26016	24.824	680
0	26284	25.064	0
0	26306	25.084	0
0	26350	25.124	0
0	26372	25.144	0
0	26614	25.384	400
0	26676	25.444	420
0	26698	25.464	460
0	26940	25.704	660
0	27022	25.784	680
0	27290	26.024	0
0	27312	26.044	0
0	27356	26.084	0
0	27378	26.104	0
0	27620	26.344	400
0	27682	26.404	420
0	27704	26.424	460
0	27946	26.664	660
0	28028	26.744	680
0	28296	26.984	0
0	28318	27.004	0
0	28362	27.044	0
0	28384	27.064	0
0	28626	27.304	400
0	28688	27.364	420
0	28710	27.384	460
0	28952	27.624	660
0	29034	27.704	680
0	29302	27.944	0
0	29324	27.964	0
0	29368	28.004	0
0	29390	28.024	0
0	29632	28.264	400
0	29694	28.324	420
0	29716	28.344	460
0	29958	28.584	660
0	30040	28.664	680
0	30308	28.904	0
0	30330	28.924	0
0	30374	28.964	0
0	30396	28.984	0
0	30638	29.224	400
0	30700	29.284	420
0	30722	29.304	460
0	30964	29.544	660
0	31046	29.624	680
0	31314	29.864	0
0	31336	29.884	0
0	31380	29.924	0
0	31402	29.944	0
0	31644	30.184	400
0	31706	30.244	420
0	31728	30.264	460
0	31970	30.504	660
0	32052	30.584	680
0	32320	30.824	0
0	32342	30.844	0
0	32386	30.884	0
0	32408	30.904	0
0	32650	31.144	400
0	32712	31.204	420
0	32734	31.224	460
0	32976	31.464	660
0	33058	31.544	680
0	33326	31.784	0
0	33348	31.804	0
0	33392	31.844	0
0	33414	31.864	0
0	33656	32.104	400
0	33718	32.164	420
0	33740	32.184	460
0	33982	32.424	660
0	34064	32.504	680
0	34332	32.744	0
0	34354	32.764	0
0	34398	32.804	0
0	34420	32.824	0
0	34662	33.064	400
0	34724	33.124	420
0	34746	33.144	460
0	34988	33.384	660
0	35070	33.464	680
0	35338	33.704	0
0	35360	33.724	0
0	35404	33.764	0
0	35426	33.784	0
0	35668	34.024	400
0	35730	34.084	420
0	35752	34.104	460
0	35994	34.344	660
0	36076	34.424	680
0	36344	34.664	0
0	36366	34.684	0
0	36410	34.724	0
0	36432	34.744	0
0	36674	34.984	400
0	36736	35.044	420
0	36758	35.064	460
0	37000	35.304	660
0	37082	35.384	680
0	37350	35.624	0
0	37372	35.644	0
0	37416	35.684	0
0	37438	35.704	0
0	37680	35.944	400
0	37742	36.004	420
0	37764	36.024	460
0	38006	36.264	660
0	38088	36.344	680
0	38356	36.584	0
0	38378	36.604	0
0	38422	36.644	0
0	38444	36.664	0
0	38686	36.904	400
0	38748	36.964	420
0	38770	36.984	460
0	39012	37.224	660
0	39094	37.304	680
0	39362	37.544	0
0	39384	37.564	0
0	39428	37.604	0
0	39450	37.624	0
0	39692	37.864	400
0	39754	37.924	420
0	39776	37.944	460
0	40018	38.184	660
0	40100	38.264	680
0	40368	38.504	0
0	40390	38.524	0
0	40434	38.564	0
0	40456	38.584	0
0	40698	38.824	400
0	40760	38.884	420
0	40782	38.904	460
0	41024	39.144	660
0	41106	39.224	680
0	41374	39.464	0
0	41396	39.484	0
0	41440	39.524	0
0	41462	39.544	0
0	41704	39.784	400
0	41766	39.844	420
0	41788	39.864	460
0	42030	40.104	660
0	42112	40.184	680
0	42380	40.424	0
0	42402	40.444	0
0	42446	40.484	0
0	42468	40.504	0
0	42710	40.744	400
0	42772	40.804	420
0	42794	40.824	460
0	43036	41.064	660
0	43118	41.144	680
0	43386	41.384	0
0	43408	41.404	0
0	43452	41.444	0
0	43474	41.464	0
0	43716	41.704	400
0	43778	41.764	420
0	43800	41.784	460
0	44042	42.024	660
0	44124	42.104	680
0	44392	42.344	0
0	44414	42.364	0
0	44458	42.404	0
0	44480	42.424	0
0	44722	42.664	400
0	44784	42.724	420
0	44806	42.744	460
0	45048	42.984	660
0	45130	43.064	680
0	45398	43.304	0
0	45420	43.324	0
0	45464	43.364	0
0	45486	43.384	0
0	45728	43.624	400
0	45790	43.684	420
0	45812	43.704	460
0	46054	43.944	660
0	46136	44.024	680
0	46404	44.264	0
0	46426	44.284	0
0	46470	44.324	0
0	46492	44.344	0
0	46734	44.584	400
0	46796	44.644	420
0	46818	44.664	460
0	47060	44.904	660
0	47142	44.984	680
0	47410	45.224	0
0	47432	45.244	0
0	47476	45.284	0
0	47498	45.304	0
0	47740	45.544	400
0	47802	45.604	420
0	47824	45.624	460
0	48066	45.864	660
0	48148	45.944	680
0	48416	46.184	0
0	48438	46.204	0
0	48482	46.244	0
0	48504	46.264	0
0	48746	46.504	400
0	48808	46.564	420
0	48830	46.584	460
0	49072	46.824	660
0	49154	46.904	680
0	49422	47.144	0
0	49444	47.164	0
0	49488	47.204	0
0	49510	47.224	0
0	49752	47.464	400
0	49814	47.524	420
0	49836	47.544	460
0	50078	47.784	660
0	50160	47.864	680
0	50428	48.104	0
0	50450	48.124	0
0	50494	48.164	0
0	50516	48.184	0
0	50758	48.424	400
0	50820	48.484	420
0	50842	48.504	460
0	51084	48.744	660
0	51166	48.824	680
0	51434	49.064	0
0	51456	49.084	0
0	51500	49.124	0
0	51522	49.144	0
0	51764	49.384	400
0	51826	49.444	420
0	51848	49.464	460
0	52090	49.704	660
0	52172	49.784	680
0	52440	50.024	0
0	52462	50.044	0
0	52506	50.084	0
0	52528	50.104	0
0	52770	50.344	400
0	52832	50.404	420
0	52854	50.424	460
0	53096	50.664	660
0	53178	50.744	680
0	53446	50.984	0
0	53468	51.004	0
0	53512	51.044	0
0	53534	51.064	0
0	53776	51.304	400
0	53838	51.364	420
0	53860	51.384	460
0	54102	51.624	660
0	54184	51.704	680
0	54452	51.944	0
0	54474	51.964	0
0	54518	52.004	0
0	54540	52.024	0
0	54782	52.264	400
0	54844	52.324	420
0	54866	52.344	460
0	55108	52.584	660
0	55190	52.664	680
0	55458	52.904	0
0	55480	52.924	0
0	55524	52.964	0
0	55546	52.984	0
0	55788	53.224	400
0	55850	53.284	420
0	55872	53.304	460
0	56114	53.544	660
0	56196	53.624	680
0	56464	53.864	0
0	56486	53.884	0
0	56530	53.924	0
0	56552	53.944	0
0	56794	54.184	400
0	56856	54.244	420
0	56878	54.264	460
0	57120	54.504	660
0	57202	54.584	680
0	57470	54.824	0
0	57492	54.844	0
0	57536	54.884	0
0	57558	54.904	0
0	57800	55.144	400
0	57862	55.204	420
0	57884	55.224	460
0	58126	55.464	660
0	58208	55.544	680
0	58476	55.784	0
0	58498	55.804	0
0	58542	55.844	0
0	58564	55.864	0
0	58806	56.104	400
0	58868	56.164	420
0	58890	56.184	460
0	59132	56.424	660
0	59214	56.504	680
0	59482	56.744	0
0	59504	56.764	0
0	59548	56.804	0
0	59570	56.824	0
0	59812	57.064	400
0	59874	57.124	420
0	59896	57.144	460
0	60138	57.384	660
0	60220	57.464	680
0	60488	57.704	0
0	60510	57.724	0
0	60554	57.764	0
0	60576	57.784	0
0	60818	58.024	400
0	60880	58.084	420
0	60902	58.104	460
0	61144	58.344	660
0	61226	58.424	680
0	61494	58.664	0
0	61516	58.684	0
0	61560	58.724	0
0	61582	58.744	0
0	61824	58.984	400
0	61886	59.044	420
0	61908	59.064	460
0	62150	59.304	660
0	62232	59.384	680
0	62500	59.624	0
0	62522	59.644	0
0	62566	59.684	0
0	62588	59.704	0
0	62830	59.944	400
0	62892	60.004	420
0	62914	60.024	460
0	63156	60.264	660
0	63238	60.344	680
0	63506	60.584	0
0	63528	60.604	0
0	63572	60.644	0
0	63594	60.664	0
0	63836	60.904	400
0	63898	60.964	420
0	63920	60.984	460
0	64162	61.224	660
0	64244	61.304	680
0	64512	61.544	0
0	64534	61.564	0
0	64578	61.604	0
0	64600	61.624	0
0	64842	61.864	400
0	64904	61.924	420
0	64926	61.944	460
0	65168	62.184	660
0	65250	62.264	680
0	65518	62.504	0
0	65540	62.524	0
0	65584	62.564	0
0	65606	62.584	0
0	65848	62.824	400
0	65910	62.884	420
0	65932	62.904	460
0	66174	63.144	660
0	66256	63.224	680
0	66524	63.464	0
0	66546	63.484	0
0	66590	63.524	0
0	66612	63.544	0
0	66854	63.784	400
0	66916	63.844	420
0	66938	63.864	460
0	67180	64.104	660
0	67262	64.184	680
0	67530	64.424	0
0	67552	64.444	0
0	67596	64.484	0
0	67618	64.504	0
0	67860	64.744	400
0	67922	64.804	420
0	67944	64.824	460
0	68186	65.064	660
0	68268	65.144	680
0	68536	65.384	0
0	68558	65.404	0
0	68602	65.444	0
0	68624	65.464	0
0	68866	65.704	400
0	68928	65.764	420
0	68950	65.784	460
0	69192	66.024	660
0	69274	66.104	680
0	69542	66.344	0
0	69564	66.364	0
0	69608	66.404	0
0	69630	66.424	0
0	69872	66.664	400
0	69934	66.724	420
0	69956	66.744	460
0	70198	66.984	660
0	70280	67.064	680
0	70548	67.304	0
0	70570	67.324	0
0	70614	67.364	0
0	70636	67.384	0
0	70878	67.624	400
0	70940	67.684	420
0	70962	67.704	460
0	71204	67.944	660
0	71286	68.024	680
0	71554	68.264	0
0	71576	68.284	0
0	71620	68.324	0
0	71642	68.344	0
0	71884	68.584	400
0	71946	68.644	420
0	71968	68.664	460
0	72210	68.904	660
0	72292	68.984	680
0	72560	69.224	0
0	72582	69.244	0
0	72626	69.284	0
0	72648	69.304	0
0	72890	69.544	400
0	72952	69.604	420
0	72974	69.624	460
0	73216	69.864	660
0	73298	69.944	680
0	73566	70.184	0
0	73588	70.204	0
0	73632	70.244	0
0	73654	70.264	0
0	73896	70.504	400
0	73958	70.564	420
0	73980	70.584	460
0	74222	70.824	660
0	74304	70.904	680
0	74572	71.144	0
0	74594	71.164	0
0	74638	71.204	0
0	74660	71.224	0
0	74902	71.464	400
0	74964	71.524	420
0	74986	71.544	460
0	75228	71.784	660
0	75310	71.864	680
0	75578	72.104	0
0	75600	72.124	0
0	75644	72.164	0
0	75666	72.184	0
0	75908	72.424	400
0	75970	72.484	420
0	75992	72.504	460
0	76234	72.744	660
0	76316	72.824	680
0	76584	73.064	0
0	76606	73.084	0
0	76650	73.124	0
0	76672	73.144	0
0	76914	73.384	400
0	76976	73.444	420
0	76998	73.464	460
0	77240	73.704	660
0	77322	73.784	680
0	77590	74.024	0
0	77612	74.044	0
0	77656	74.084	0
0	77678	74.104	0
0	77920	74.344	400
0	77982	74.404	420
0	78004	74.424	460
0	78246	74.664	660
0	78328	74.744	680
0	78596	74.984	0
0	78618	75.004	0
0	78662	75.044	0
0	78684	75.064	0
0	78926	75.304	400
0	78988	75.364	420
0	79010	75.384	460
0	79252	75.624	660
0	79334	75.704	680
0	79602	75.944	0
0	79624	75.964	0
0	79668	76.004	0
0	79690	76.024	0
0	79932	76.264	400
0	79994	76.324	420
0	80016	76.344	460
0	80258	76.584	660
0	80340	76.664	680
0	80608	76.904	0
0	80630	76.924	0
0	80674	76.964	0
0	80696	76.984	0
0	80938	77.224	400
0	81000	77.284	420
0	81022	77.304	460
0	81264	77.544	660
0	81346	77.624	680
0	81614	77.864	0
0	81636	77.884	0
0	81680	77.924	0
0	81702	77.944	0
0	81944	78.184	400
0	82006	78.244	420
0	82028	78.264	460
0	82270	78.504	660
0	82352	78.584	680
0	82620	78.824	0
0	82642	78.844	0
0	82686	78.884	0
0	82708	78.904	0
0	82950	79.144	400
0	83012	79.204	420
0	83034	79.224	460
0	83276	79.464	660
0	83358	79.544	680
0	83626	79.784	0
0	83648	79.804	0
0	83692	79.844	0
0	83714	79.864	0
0	83956	80.104	400
0	84018	80.164	420
0	84040	80.184	460
0	84282	80.424	660
0	84364	80.504	680
0	84632	80.744	0
0	84654	80.764	0
0	84698	80.804	0
0	84720	80.824	0
0	84962	81.064	400
0	85024	81.124	420
0	85046	81.144	460
0	85288	81.384	660
0	85370	81.464	680
0	85638	81.704	0
0	85660	81.724	0
0	85704	81.764	0
0	85726	81.784	0
0	85968	82.024	400
0	86030	82.084	420
0	86052	82.104	460
0	86294	82.344	660
0	86376	82.424	680
0	86644	82.664	0
0	86666	82.684	0
0	86710	82.724	0
0	86732	82.744	0
0	86974	82.984	400
0	87036	83.044	420
0	87058	83.064	460
0	87300	83.304	660
0	87382	83.384	680
0	87650	83.624	0
0	87672	83.644	0
0	87716	83.684	0
0	87738	83.704	0
0	87980	83.944	400
0	88042	84.004	420
0	88064	84.024	460
0	88306	84.264	660
0	88388	84.344	680
0	88656	84.584	0
0	88678	84.604	0
0	88722	84.644	0
0	88744	84.664	0
0	88986	84.904	400
0	89048	84.964	420
0	89070	84.984	460
0	89312	85.224	660
0	89394	85.304	680
0	89662	85.544	0
0	89684	85.564	0
0	89728	85.604	0
0	89750	85.624	0
0	89992	85.864	400
0	90054	85.924	420
0	90076	85.944	460
0	90318	86.184	660
0	90400	86.264	680
0	90668	86.504	0
0	90690	86.524	0
0	90734	86.564	0
0	90756	86.584	0
0	90998	86.824	400
0	91060	86.884	420
0	91082	86.904	460
0	91324	87.144	660
0	91406	87.224	680
0	91674	87.464	0
0	91696	87.484	0
0	91740	87.524	0
0	91762	87.544	0
0	92004	87.784	400
0	92066	87.844	420
0	92088	87.864	460
0	92330	88.104	660
0	92412	88.184	680
0	92680	88.424	0
0	92702	88.444	0
0	92746	88.484	0
0	92768	88.504	0
0	93010	88.744	400
0	93072	88.804	420
0	93094	88.824	460
0	93336	89.064	660
0	93418	89.144	680
0	93686	89.384	0
0	93708	89.404	0
0	93752	89.444	0
0	93774	89.464	0
0	94016	89.704	400
0	94078	89.764	420
0	94100	89.784	460
0	94342	90.024	660
0	94424	90.104	680
0	94692	90.344	0
0	94714	90.364	0
0	94758	90.404	0
0	94780	90.424	0
0	95022	90.664	400
0	95084	90.724	420
0	95106	90.744	460
0	95348	90.984	660
0	95430	91.064	680
0	95698	91.304	0
0	95720	91.324	0
0	95764	91.364	0
0	95786	91.384	0
0	96028	91.624	400
0	96090	91.684	420
0	96112	91.704	460
0	96354	91.944	660
0	96436	92.024	680
0	96704	92.264	0
0	96726	92.284	0
0	96770	92.324	0
0	96792	92.344	0
0	97034	92.584	400
0	97096	92.644	420
0	97118	92.664	460
0	97360	92.904	660
0	97442	92.984	680
0	97710	93.224	0
0	97732	93.244	0
0	97776	93.284	0
0	97798	93.304	0
0	98040	93.544	400
0	98102	93.604	420
0	98124	93.624	460
0	98366	93.864	660
0	98448	93.944	680
0	98716	94.184	0
0	98738	94.204	0
0	98782	94.244	0
0	98804	94.264	0
0	99046	94.504	400
0	99108	94.564	420
0	99130	94.584	460
0	99372	94.824	660
0	99454	94.904	680
0	99722	95.144	0
0	99744	95.164	0
0	99788	95.204	0
0	99810	95.224	0
0	100052	95.464	400
0	100114	95.524	420
0	100136	95.544	460
0	100378	95.784	660
0	100460	95.864	680
0	100728	96.104	0
0	100750	96.124	0
0	100794	96.164	0
0	100816	96.184	0
0	101058	96.424	400
0	101120	96.484	420
0	101142	96.504	460
0	101384	96.744	660
0	101466	96.824	680
0	101734	97.064	0
0	101756	97.084	0
0	101800	97.124	0
0	101822	97.144	0
0	102064	97.384	400
0	102126	97.444	420
0	102148	97.464	460
0	102390	97.704	660
0	102472	97.784	680
0	102740	98.024	0
0	102762	98.044	0
0	102806	98.084	0
0	102828	98.104	0
0	103070	98.344	400
0	103132	98.404	420
0	103154	98.424	460
0	103396	98.664	660
0	103478	98.744	680
0	103746	98.984	0
0	103768	99.004	0
0	103812	99.044	0
0	103834	99.064	0
0	104076	99.304	400
0	104138	99.364	420
0	104160	99.384	460
0	104402	99.624	660
0	104484	99.704	680
0	104752	99.944	0
0	104774	99.964	0
1	128	0.104	0
1	1134	1.064	0
1	2140	2.024	0
1	3146	2.984	0
1	4152	3.944	0
1	5158	4.904	0
1	6164	5.864	0
1	7170	6.824	0
1	8176	7.784	0
1	9182	8.744	0
1	10188	9.704	0
1	11194	10.664	0
1	12200	11.624	0
1	13206	12.584	0
1	14212	13.544	0
1	15218	14.504	0
1	16224	15.464	0
1	17230	16.424	0
1	18236	17.384	0
1	19242	18.344	0
1	20248	19.304	0
1	21254	20.264	0
1	22260	21.224	0
1	23266	22.184	0
1	24272	23.144	0
1	25278	24.104	0
1	26284	25.064	0
1	27290	26.024	0
1	28296	26.984	0
1	29302	27.944	0
1	30308	28.904	0
1	31314	29.864	0
1	32320	30.824	0
1	33326	31.784	0
1	34332	32.744	0
1	35338	33.704	0
1	36344	34.664	0
1	37350	35.624	0
1	38356	36.584	0
1	39362	37.544	0
1	40368	38.504	0
1	41374	39.464	0
1	42380	40.424	0
1	43386	41.384	0
1	44392	42.344	0
1	45398	43.304	0
1	46404	44.264	0
1	47410	45.224	0
1	48416	46.184	0
1	49422	47.144	0
1	50428	48.104	0
1	51434	49.064	0
1	52440	50.024	0
1	53446	50.984	0
1	54452	51.944	0
1	55458	52.904	0
1	56464	53.864	0
1	57470	54.824	0
1	58476	55.784	0
1	59482	56.744	0
1	60488	57.704	0
1	61494	58.664	0
1	62500	59.624	0
1	63506	60.584	0
1	64512	61.544	0
1	65518	62.504	0
1	66524	63.464	0
1	67530	64.424	0
1	68536	65.384	0
1	69542	66.344	0
1	70548	67.304	0
1	71554	68.264	0
1	72560	69.224	0
1	73566	70.184	0
1	74572	71.144	0
1	75578	72.104	0
1	76584	73.064	0
1	77590	74.024	0
1	78596	74.984	0
1	79602	75.944	0
1	80608	76.904	0
1	81614	77.864	0
1	82620	78.824	0
1	83626	79.784	0
1	84632	80.744	0
1	85638	81.704	0
1	86644	82.664	0
1	87650	83.624	0
1	88656	84.584	0
1	89662	85.544	0
1	90668	86.504	0
1	91674	87.464	0
1	92680	88.424	0
1	93686	89.384	0
1	94692	90.344	0
1	95698	91.304	0
1	96704	92.264	0
1	97710	93.224	0
1	98716	94.184	0
1	99722	95.144	0
1	100728	96.104	0
1	101734	97.064	0
1	102740	98.024	0
1	103746	98.984	0
1	104752	99.944	0
2	150	0.124	0
2	1156	1.084	0
2	2162	2.044	0
2	3168	3.004	0
2	4174	3.964	0
2	5180	4.924	0
2	6186	5.884	0
2	7192	6.844	0
2	8198	7.804	0
2	9204	8.764	0
2	10210	9.724	0
2	11216	10.684	0
2	12222	11.644	0
2	13228	12.604	0
2	14234	13.564	0
2	15240	14.524	0
2	16246	15.484	0
2	17252	16.444	0
2	18258	17.404	0
2	19264	18.364	0
2	20270	19.324	0
2	21276	20.284	0
2	22282	21.244	0
2	23288	22.204	0
2	24294	23.164	0
2	25300	24.124	0
2	26306	25.084	0
2	27312	26.044	0
2	28318	27.004	0
2	29324	27.964	0
2	30330	28.924	0
2	31336	29.884	0
2	32342	30.844	0
2	33348	31.804	0
2	34354	32.764	0
2	35360	33.724	0
2	36366	34.684	0
2	37372	35.644	0
2	38378	36.604	0
2	39384	37.564	0
2	40390	38.524	0
2	41396	39.484	0
2	42402	40.444	0
2	43408	41.404	0
2	44414	42.364	0
2	45420	43.324	0
2	46426	44.284	0
2	47432	45.244	0
2	48438	46.204	0
2	49444	47.164	0
2	50450	48.124	0
2	51456	49.084	0
2	52462	50.044	0
2	53468	51.004	0
2	54474	51.964	0
2	55480	52.924	0
2	56486	53.884	0
2	57492	54.844	0
2	58498	55.804	0
2	59504	56.764	0
2	60510	57.724	0
2	61516	58.684	0
2	62522	59.644	0
2	63528	60.604	0
2	64534	61.564	0
2	65540	62.524	0
2	66546	63.484	0
2	67552	64.444	0
2	68558	65.404	0
2	69564	66.364	0
2	70570	67.324	0
2	71576	68.284	0
2	72582	69.244	0
2	73588	70.204	0
2	74594	71.164	0
2	75600	72.124	0
2	76606	73.084	0
2	77612	74.044	0
2	78618	75.004	0
2	79624	75.964	0
2	80630	76.924	0
2	81636	77.884	0
2	82642	78.844	0
2	83648	79.804	0
2	84654	80.764	0
2	85660	81.724	0
2	86666	82.684	0
2	87672	83.644	0
2	88678	84.604	0
2	89684	85.564	0
2	90690	86.524	0
2	91696	87.484	0
2	92702	88.444	0
2	93708	89.404	0
2	94714	90.364	0
2	95720	91.324	0
2	96726	92.284	0
2	97732	93.244	0
2	98738	94.204	0
2	99744	95.164	0
2	100750	96.124	0
2	101756	97.084	0
2	102762	98.044	0
2	103768	99.004	0
2	104774	99.964	0
3	194	0.164	0
3	1200	1.124	0
3	2206	2.084	0
3	3212	3.044	0
3	4218	4.004	0
3	5224	4.964	0
3	6230	5.924	0
3	7236	6.884	0
3	8242	7.844	0
3	9248	8.804	0
3	10254	9.764	0
3	11260	10.724	0
3	12266	11.684	0
3	13272	12.644	0
3	14278	13.604	0
3	15284	14.564	0
3	16290	15.524	0
3	17296	16.484	0
3	18302	17.444	0
3	19308	18.404	0
3	20314	19.364	0
3	21320	20.324	0
3	22326	21.284	0
3	23332	22.244	0
3	24338	23.204	0
3	25344	24.164	0
3	26350	25.124	0
3	27356	26.084	0
3	28362	27.044	0
3	29368	28.004	0
3	30374	28.964	0
3	31380	29.924	0
3	32386	30.884	0
3	33392	31.844	0
3	34398	32.804	0
3	35404	33.764	0
3	36410	34.724	0
3	37416	35.684	0
3	38422	36.644	0
3	39428	37.604	0
3	40434	38.564	0
3	41440	39.524	0
3	42446	40.484	0
3	43452	41.444	0
3	44458	42.404	0
3	45464	43.364	0
3	46470	44.324	0
3	47476	45.284	0
3	48482	46.244	0
3	49488	47.204	0
3	50494	48.164	0
3	51500	49.124	0
3	52506	50.084	0
3	53512	51.044	0
3	54518	52.004	0
3	55524	52.964	0
3	56530	53.924	0
3	57536	54.884	0
3	58542	55.844	0
3	59548	56.804	0
3	60554	57.764	0
3	61560	58.724	0
3	62566	59.684	0
3	63572	60.644	0
3	64578	61.604	0
3	65584	62.564	0
3	66590	63.524	0
3	67596	64.484	0
3	68602	65.444	0
3	69608	66.404	0
3	70614	67.364	0
3	71620	68.324	0
3	72626	69.284	0
3	73632	70.244	0
3	74638	71.204	0
3	75644	72.164	0
3	76650	73.124	0
3	77656	74.084	0
3	78662	75.044	0
3	79668	76.004	0
3	80674	76.964	0
3	81680	77.924	0
3	82686	78.884	0
3	83692	79.844	0
3	84698	80.804	0
3	85704	81.764	0
3	86710	82.724	0
3	87716	83.684	0
3	88722	84.644	0
3	89728	85.604	0
3	90734	86.564	0
3	91740	87.524	0
3	92746	88.484	0
3	93752	89.444	0
3	94758	90.404	0
3	95764	91.364	0
3	96770	92.324	0
3	97776	93.284	0
3	98782	94.244	0
3	99788	95.204	0
3	100794	96.164	0
3	101800	97.124	0
3	102806	98.084	0
3	103812	99.044	0
4	216	0.184	0
4	1222	1.144	0
4	2228	2.104	0
4	3234	3.064	0
4	4240	4.024	0
4	5246	4.984	0
4	6252	5.944	0
4	7258	6.904	0
4	8264	7.864	0
4	9270	8.824	0
4	10276	9.784	0
4	11282	10.744	0
4	12288	11.704	0
4	13294	12.664	0
4	14300	13.624	0
4	15306	14.584	0
4	16312	15.544	0
4	17318	16.504	0
4	18324	17.464	0
4	19330	18.424	0
4	20336	19.384	0
4	21342	20.344	0
4	22348	21.304	0
4	23354	22.264	0
4	24360	23.224	0
4	25366	24.184	0
4	26372	25.144	0
4	27378	26.104	0
4	28384	27.064	0
4	29390	28.024	0
4	30396	28.984	0
4	31402	29.944	0
4	32408	30.904	0
4	33414	31.864	0
4	34420	32.824	0
4	35426	33.784	0
4	36432	34.744	0
4	37438	35.704	0
4	38444	36.664	0
4	39450	37.624	0
4	40456	38.584	0
4	41462	39.544	0
4	42468	40.504	0
4	43474	41.464	0
4	44480	42.424	0
4	45486	43.384	0
4	46492	44.344	0
4	47498	45.304	0
4	48504	46.264	0
4	49510	47.224	0
4	50516	48.184	0
4	51522	49.144	0
4	52528	50.104	0
4	53534	51.064	0
4	54540	52.024	0
4	55546	52.984	0
4	56552	53.944	0
4	57558	54.904	0
4	58564	55.864	0
4	59570	56.824	0
4	60576	57.784	0
4	61582	58.744	0
4	62588	59.704	0
4	63594	60.664	0
4	64600	61.624	0
4	65606	62.584	0
4	66612	63.544	0
4	67618	64.504	0
4	68624	65.464	0
4	69630	66.424	0
4	70636	67.384	0
4	71642	68.344	0
4	72648	69.304	0
4	73654	70.264	0
4	74660	71.224	0
4	75666	72.184	0
4	76672	73.144	0
4	77678	74.104	0
4	78684	75.064	0
4	79690	76.024	0
4	80696	76.984	0
4	81702	77.944	0
4	82708	78.904	0
4	83714	79.864	0
4	84720	80.824	0
4	85726	81.784	0
4	86732	82.744	0
4	87738	83.704	0
4	88744	84.664	0
4	89750	85.624	0
4	90756	86.584	0
4	91762	87.544	0
4	92768	88.504	0
4	93774	89.464	0
4	94780	90.424	0
4	95786	91.384	0
4	96792	92.344	0
4	97798	93.304	0
4	98804	94.264	0
4	99810	95.224	0
4	100816	96.184	0
4	101822	97.144	0
4	102828	98.104	0
4	103834	99.064	0
5	458	0.424	400
5	1464	1.384	400
5	2470	2.344	400
5	3476	3.304	400
5	4482	4.264	400
5	5488	5.224	400
5	6494	6.184	400
5	7500	7.144	400
5	8506	8.104	400
5	9512	9.064	400
5	10518	10.024	400
5	11524	10.984	400
5	12530	11.944	400
5	13536	12.904	400
5	14542	13.864	400
5	15548	14.824	400
5	16554	15.784	400
5	17560	16.744	400
5	18566	17.704	400
5	19572	18.664	400
5	20578	19.624	400
5	21584	20.584	400
5	22590	21.544	400
5	23596	22.504	400
5	24602	23.464	400
5	25608	24.424	400
5	26614	25.384	400
5	27620	26.344	400
5	28626	27.304	400
5	29632	28.264	400
5	30638	29.224	400
5	31644	30.184	400
5	32650	31.144	400
5	33656	32.104	400
5	34662	33.064	400
5	35668	34.024	400
5	36674	34.984	400
5	37680	35.944	400
5	38686	36.904	400
5	39692	37.864	400
5	40698	38.824	400
5	41704	39.784	400
5	42710	40.744	400
5	43716	41.704	400
5	44722	42.664	400
5	45728	43.624	400
5	46734	44.584	400
5	47740	45.544	400
5	48746	46.504	400
5	49752	47.464	400
5	50758	48.424	400
5	51764	49.384	400
5	52770	50.344	400
5	53776	51.304	400
5	54782	52.264	400
5	55788	53.224	400
5	56794	54.184	400
5	57800	55.144	400
5	58806	56.104	400
5	59812	57.064	400
5	60818	58.024	400
5	61824	58.984	400
5	62830	59.944	400
5	63836	60.904	400
5	64842	61.864	400
5	65848	62.824	400
5	66854	63.784	400
5	67860	64.744	400
5	68866	65.704	400
5	69872	66.664	400
5	70878	67.624	400
5	71884	68.584	400
5	72890	69.544	400
5	73896	70.504	400
5	74902	71.464	400
5	75908	72.424	400
5	76914	73.384	400
5	77920	74.344	400
5	78926	75.304	400
5	79932	76.264	400
5	80938	77.224	400
5	81944	78.184	400
5	82950	79.144	400
5	83956	80.104	400
5	84962	81.064	400
5	85968	82.024	400
5	86974	82.984	400
5	87980	83.944	400
5	88986	84.904	400
5	89992	85.864	400
5	90998	86.824	400
5	92004	87.784	400
5	93010	88.744	400
5	94016	89.704	400
5	95022	90.664	400
5	96028	91.624	400
5	97034	92.584	400
5	98040	93.544	400
5	99046	94.504	400
5	100052	95.464	400
5	101058	96.424	400
5	102064	97.384	400
5	103070	98.344	400
5	104076	99.304	400
6	520	0.484	420
6	1526	1.444	420
6	2532	2.404	420
6	3538	3.364	420
6	4544	4.324	420
6	5550	5.284	420
6	6556	6.244	420
6	7562	7.204	420
6	8568	8.164	420
6	9574	9.124	420
6	10580	10.084	420
6	11586	11.044	420
6	12592	12.004	420
6	13598	12.964	420
6	14604	13.924	420
6	15610	14.884	420
6	16616	15.844	420
6	17622	16.804	420
6	18628	17.764	420
6	19634	18.724	420
6	20640	19.684	420
6	21646	20.644	420
6	22652	21.604	420
6	23658	22.564	420
6	24664	23.524	420
6	25670	24.484	420
6	26676	25.444	420
6	27682	26.404	420
6	28688	27.364	420
6	29694	28.324	420
6	30700	29.284	420
6	31706	30.244	420
6	32712	31.204	420
6	33718	32.164	420
6	34724	33.124	420
6	35730	34.084	420
6	36736	35.044	420
6	37742	36.004	420
6	38748	36.964	420
6	39754	37.924	420
6	40760	38.884	420
6	41766	39.844	420
6	42772	40.804	420
6	43778	41.764	420
6	44784	42.724	420
6	45790	43.684	420
6	46796	44.644	420
6	47802	45.604	420
6	48808	46.564	420
6	49814	47.524	420
6	50820	48.484	420
6	51826	49.444	420
6	52832	50.404	420
6	53838	51.364	420
6	54844	52.324	420
6	55850	53.284	420
6	56856	54.244	420
6	57862	55.204	420
6	58868	56.164	420
6	59874	57.124	420
6	60880	58.084	420
6	61886	59.044	420
6	62892	60.004	420
6	63898	60.964	420
6	64904	61.924	420
6	65910	62.884	420
6	66916	63.844	420
6	67922	64.804	420
6	68928	65.764	420
6	69934	66.724	420
6	70940	67.684	420
6	71946	68.644	420
6	72952	69.604	420
6	73958	70.564	420
6	74964	71.524	420
6	75970	72.484	420
6	76976	73.444	420
6	77982	74.404	420
6	78988	75.364	420
6	79994	76.324	420
6	81000	77.284	420
6	82006	78.244	420
6	83012	79.204	420
6	84018	80.164	420
6	85024	81.124	420
6	86030	82.084	420
6	87036	83.044	420
6	88042	84.004	420
6	89048	84.964	420
6	90054	85.924	420
6	91060	86.884	420
6	92066	87.844	420
6	93072	88.804	420
6	94078	89.764	420
6	95084	90.724	420
6	96090	91.684	420
6	97096	92.644	420
6	98102	93.604	420
6	99108	94.564	420
6	100114	95.524	420
6	101120	96.484	420
6	102126	97.444	420
6	103132	98.404	420
6	104138	99.364	420
7	542	0.504	460
7	1548	1.464	460
7	2554	2.424	460
7	3560	3.384	460
7	4566	4.344	460
7	5572	5.304	460
7	6578	6.264	460
7	7584	7.224	460
7	8590	8.184	460
7	9596	9.144	460
7	10602	10.104	460
7	11608	11.064	460
7	12614	12.024	460
7	13620	12.984	460
7	14626	13.944	460
7	15632	14.904	460
7	16638	15.864	460
7	17644	16.824	460
7	18650	17.784	460
7	19656	18.744	460
7	20662	19.704	460
7	21668	20.664	460
7	22674	21.624	460
7	23680	22.584	460
7	24686	23.544	460
7	25692	24.504	460
7	26698	25.464	460
7	27704	26.424	460
7	28710	27.384	460
7	29716	28.344	460
7	30722	29.304	460
7	31728	30.264	460
7	32734	31.224	460
7	33740	32.184	460
7	34746	33.144	460
7	35752	34.104	460
7	36758	35.064	460
7	37764	36.024	460
7	38770	36.984	460
7	39776	37.944	460
7	40782	38.904	460
7	41788	39.864	460
7	42794	40.824	460
7	43800	41.784	460
7	44806	42.744	460
7	45812	43.704	460
7	46818	44.664	460
7	47824	45.624	460
7	48830	46.584	460
7	49836	47.544	460
7	50842	48.504	460
7	51848	49.464	460
7	52854	50.424	460
7	53860	51.384	460
7	54866	52.344	460
7	55872	53.304	460
7	56878	54.264	460
7	57884	55.224	460
7	58890	56.184	460
7	59896	57.144	460
7	60902	58.104	460
7	61908	59.064	460
7	62914	60.024	460
7	63920	60.984	460
7	64926	61.944	460
7	65932	62.904	460
7	66938	63.864	460
7	67944	64.824	460
7	68950	65.784	460
7	69956	66.744	460
7	70962	67.704	460
7	71968	68.664	460
7	72974	69.624	460
7	73980	70.584	460
7	74986	71.544	460
7	75992	72.504	460
7	76998	73.464	460
7	78004	74.424	460
7	79010	75.384	460
7	80016	76.344	460
7	81022	77.304	460
7	82028	78.264	460
7	83034	79.224	460
7	84040	80.184	460
7	85046	81.144	460
7	86052	82.104	460
7	87058	83.064	460
7	88064	84.024	460
7	89070	84.984	460
7	90076	85.944	460
7	91082	86.904	460
7	92088	87.864	460
7	93094	88.824	460
7	94100	89.784	460
7	95106	90.744	460
7	96112	91.704	460
7	97118	92.664	460
7	98124	93.624	460
7	99130	94.584	460
7	100136	95.544	460
7	101142	96.504	460
7	102148	97.464	460
7	103154	98.424	460
7	104160	99.384	460
8	784	0.744	660
8	1790	1.704	660
8	2796	2.664	660
8	3802	3.624	660
8	4808	4.584	660
8	5814	5.544	660
8	6820	6.504	660
8	7826	7.464	660
8	8832	8.424	660
8	9838	9.384	660
8	10844	10.344	660
8	11850	11.304	660
8	12856	12.264	660
8	13862	13.224	660
8	14868	14.184	660
8	15874	15.144	660
8	16880	16.104	660
8	17886	17.064	660
8	18892	18.024	660
8	19898	18.984	660
8	20904	19.944	660
8	21910	20.904	660
8	22916	21.864	660
8	23922	22.824	660
8	24928	23.784	660
8	25934	24.744	660
8	26940	25.704	660
8	27946	26.664	660
8	28952	27.624	660
8	29958	28.584	660
8	30964	29.544	660
8	31970	30.504	660
8	32976	31.464	660
8	33982	32.424	660
8	34988	33.384	660
8	35994	34.344	660
8	37000	35.304	660
8	38006	36.264	660
8	39012	37.224	660
8	40018	38.184	660
8	41024	39.144	660
8	42030	40.104	660
8	43036	41.064	660
8	44042	42.024	660
8	45048	42.984	660
8	46054	43.944	660
8	47060	44.904	660
8	48066	45.864	660
8	49072	46.824	660
8	50078	47.784	660
8	51084	48.744	660
8	52090	49.704	660
8	53096	50.664	660
8	54102	51.624	660
8	55108	52.584	660
8	56114	53.544	660
8	57120	54.504	660
8	58126	55.464	660
8	59132	56.424	660
8	60138	57.384	660
8	61144	58.344	660
8	62150	59.304	660
8	63156	60.264	660
8	64162	61.224	660
8	65168	62.184	660
8	66174	63.144	660
8	67180	64.104	660
8	68186	65.064	660
8	69192	66.024	660
8	70198	66.984	660
8	71204	67.944	660
8	72210	68.904	660
8	73216	69.864	660
8	74222	70.824	660
8	75228	71.784	660
8	76234	72.744	660
8	77240	73.704	660
8	78246	74.664	660
8	79252	75.624	660
8	80258	76.584	660
8	81264	77.544	660
8	82270	78.504	660
8	83276	79.464	660
8	84282	80.424	660
8	85288	81.384	660
8	86294	82.344	660
8	87300	83.304	660
8	88306	84.264	660
8	89312	85.224	660
8	90318	86.184	660
8	91324	87.144	660
8	92330	88.104	660
8	93336	89.064	660
8	94342	90.024	660
8	95348	90.984	660
8	96354	91.944	660
8	97360	92.904	660
8	98366	93.864	660
8	99372	94.824	660
8	100378	95.784	660
8	101384	96.744	660
8	102390	97.704	660
8	103396	98.664	660
8	104402	99.624	660
9	866	0.824	680
9	1872	1.784	680
9	2878	2.744	680
9	3884	3.704	680
9	4890	4.664	680
9	5896	5.624	680
9	6902	6.584	680
9	7908	7.544	680
9	8914	8.504	680
9	9920	9.464	680
9	10926	10.424	680
9	11932	11.384	680
9	12938	12.344	680
9	13944	13.304	680
9	14950	14.264	680
9	15956	15.224	680
9	16962	16.184	680
9	17968	17.144	680
9	18974	18.104	680
9	19980	19.064	680
9	20986	20.024	680
9	21992	20.984	680
9	22998	21.944	680
9	24004	22.904	680
9	25010	23.864	680
9	26016	24.824	680
9	27022	25.784	680
9	28028	26.744	680
9	29034	27.704	680
9	30040	28.664	680
9	31046	29.624	680
9	32052	30.584	680
9	33058	31.544	680
9	34064	32.504	680
9	35070	33.464	680
9	36076	34.424	680
9	37082	35.384	680
9	38088	36.344	680
9	39094	37.304	680
9	40100	38.264	680
9	41106	39.224	680
9	42112	40.184	680
9	43118	41.144	680
9	44124	42.104	680
9	45130	43.064	680
9	46136	44.024	680
9	47142	44.984	680
9	48148	45.944	680
9	49154	46.904	680
9	50160	47.864	680
9	51166	48.824	680
9	52172	49.784	680
9	53178	50.744	680
9	54184	51.704	680
9	55190	52.664	680
9	56196	53.624	680
9	57202	54.584	680
9	58208	55.544	680
9	59214	56.504	680
9	60220	57.464	680
9	61226	58.424	680
9	62232	59.384	680
9	63238	60.344	680
9	64244	61.304	680
9	65250	62.264	680
9	66256	63.224	680
9	67262	64.184	680
9	68268	65.144	680
9	69274	66.104	680
9	70280	67.064	680
9	71286	68.024	680
9	72292	68.984	680
9	73298	69.944	680
9	74304	70.904	680
9	75310	71.864	680
9	76316	72.824	680
9	77322	73.784	680
9	78328	74.744	680
9	79334	75.704	680
9	80340	76.664	680
9	81346	77.624	680
9	82352	78.584	680
9	83358	79.544	680
9	84364	80.504	680
9	85370	81.464	680
9	86376	82.424	680
9	87382	83.384	680
9	88388	84.344	680
9	89394	85.304	680
9	90400	86.264	680
9	91406	87.224	680
9	92412	88.184	680
9	93418	89.144	680
9	94424	90.104	680
9	95430	91.064	680
9	96436	92.024	680
9	97442	92.984	680
9	98448	93.944	680
9	99454	94.904	680
9	100460	95.864	680
9	101466	96.824	680
9	102472	97.784	680
9	103478	98.744	680
9	104484	99.704	680

